-------------------------------------------------------
          Amber 24 PMEMD                              2024
          -------------------------------------------------------

  [-O]verwriting output

File Assignments:

 Here is the input file:

*******************************************************
*****************************       mdin
*******************************************************
Production runs elec-LJ sdr
 &cntrl
  imin = 0,
ntx = 1,
irest = 0,
  ntpr = 1000,
  ntwr = 10000,
  ntwe = 0,
  ntxo = 2,
  ntwx = 2500,
  ntwprt = 27883,
  ioutfm = 1,
  iwrap = 1,
  ntf = 1,
  ntc = 2,
  cut = 9.0,
  ntt = 3,
  temp0 = 310.0,
  gamma_ln = 1.0,
  ig = -1,
  ntp = 0,
  barostat = 2,
  nstlim = 5000,
dt = 0.001,
  nmropt = 1,
  pencut = -1,
  ntr = 1,
  restraint_wt = 50.0,
restraintmask = '(@CA | :g1i | :1-2) & !@H='
  icfe = 1,
  clambda = 0.61000,
  timask1 = ':287',
  timask2 = ':288',
  ifsc=1,
  scmask1=':287',
  scmask2=':288',
  ifmbar = 1,
  gti_cut   = 1,
  gti_output = 1,
  gti_add_sc = 25,
  gti_scale_beta  = 1,
  gti_lam_sch = 1,
  gti_ele_sc  = 1,
  gti_vdw_sc  = 1,
  gti_cut_sc  = 2,
  scalpha = 0.5,
  scbeta = 1.0,
  gti_cut_sc_on   = 7,
  gti_cut_sc_off  = 9,
  gti_ele_exp     = 2,
  gti_vdw_exp     = 2,
  gti_chg_keep    = 1,
  gti_bat_sc      = 1,

  mbar_states = 24
  mbar_lambda = 0.00000, 0.04000, 0.09000, 0.13000, 0.17000, 0.22000, 0.26000,
  infe = 1,
 /
 &pmd
  output_file = 'cmass.txt'
  output_freq = 2500
  cv_file = 'cv.in'
 /
 &wt type = 'END' , /
DISANG=disang.rest
LISTOUT=POUT

Note: ig = -1. Setting random seed to   193222 based on wallclock time in
      microseconds.

--------------------------------------------------------------------------------
   1.  RESOURCE   USE:
--------------------------------------------------------------------------------

 getting new box info from bottom of inpcrd
 NATOM  =   81889 NTYPES =      83 NBONH =   70482 MBONA  =   11205
 NTHETH =   39428 MTHETA =   13454 NPHIH =   68287 MPHIA  =   45210
 NHPARM =       0 NPARM  =       0 NNB   =  227344 NRES   =   18868
 NBONA  =   11205 NTHETA =   13454 NPHIA =   45210 NUMBND =     105
 NUMANG =     199 NPTRA  =     296 NATYP =       1 NPHB   =       0
 IFBOX  =       1 NMXRS  =      50 IFCAP =       0 NEXTRA =       0
 NCOPY  =       0

     BOX TYPE: RECTILINEAR

--------------------------------------------------------------------------------
   2.  CONTROL  DATA  FOR  THE  RUN
--------------------------------------------------------------------------------

default_name

General flags:
     imin    =       0, nmropt  =       1

Nature and format of input:
     ntx     =       1, irest   =       0, ntrx    =       1

Nature and format of output:
     ntxo    =       2, ntpr    =    1000, ntrx    =       1, ntwr    =   10000
     iwrap   =       1, ntwx    =    2500, ntwv    =       0, ntwe    =       0
     ioutfm  =       1, ntwprt  =   27883, idecomp =       0, rbornstat=      0

Potential function:
     ntf     =       1, ntb     =       1, igb     =       0, nsnb    =      25
     ipol    =       0, gbsa    =       0, iesp    =       0
     dielc   =   1.00000, cut     =   9.00000, intdiel =   1.00000

Frozen or restrained atoms:
     ibelly  =       0, ntr     =       1
     restraint_wt =  50.00000

Molecular dynamics:
     nstlim  =      5000, nscm    =         0, nrespa  =         1
     t       =   0.00000, dt      =   0.00100, vlimit  =  -1.00000

Langevin dynamics temperature regulation:
     ig      =  193222
     temp0   = 310.00000, tempi   =   0.00000, gamma_ln=   1.00000

SHAKE:
     ntc     =       2, jfastw  =       0
     tol     =   0.00001

NMR refinement options:
     iscale  =       0, noeskp  =       1, ipnlty  =       1, mxsub   =       1
     scalm   = 100.00000, pencut  =  -1.00000, tausw   =   0.10000

Free energy options:
     icfe    =       1, ifsc    =       1, klambda =       1
     clambda =  0.6100, scalpha =  0.5000, scbeta  =  1.0000
     sceeorder =       2
     dynlmb =  0.0000 logdvdl =       0

FEP MBAR options:
     ifmbar  =       1,  bar_intervall =      100
     mbar_states =      24

Ewald parameters:
     verbose =       0, ew_type =       0, nbflag  =       1, use_pme =       1
     vdwmeth =       1, eedmeth =       1, netfrc  =       1
     Box X =   88.838   Box Y =   80.310   Box Z =  112.583
     Alpha =   90.000   Beta  =   90.000   Gamma =   90.000
     NFFT1 =   96       NFFT2 =   84       NFFT3 =  120
     Cutoff=    9.000   Tol   =0.100E-04
     Ewald Coefficient =  0.30768
     Interpolation order =    4

    LOADING THE CONSTRAINED ATOMS AS GROUPS

   5.  REFERENCE ATOM COORDINATES

  default_name
     Mask (@CA | :g1i | :1-2) & !@H=; matches   316 atoms
     TI Mask 1 :287; matches     31 atoms
     TI Mask 2 :288; matches     31 atoms
     TI region 1:   81858 atoms
     TI region 2:   81858 atoms
     SC Mask 1 :287; matches     31 atoms
     SC Mask 2 :288; matches     31 atoms

    MBAR - lambda values considered:
      24 total:  0.0000 0.0400 0.0900 0.1300 0.1700 0.2200 0.2600 0.3000 0.3500 0.3900 0.4300 0.4800 0.5200 0.5700 0.6100 0.6500 0.7000 0.7400 0.7800 0.8300
 0.9300 0.9700 0.9900 1.0000
    Extra energies will be computed     50 times.

--------------------------------------------------------------------------------
   3.  ATOMIC COORDINATES AND VELOCITIES
--------------------------------------------------------------------------------

default_name
 begin time read from input coords =     0.000 ps

           Begin reading energy term weight changes/NMR restraints
 WEIGHT CHANGES:
                         ** No weight changes given **

 RESTRAINTS:
 Requested file redirections:
  DISANG    = disang.rest
  LISTOUT   = POUT
 Restraints will be read from file: disang.rest
Here are comments from the DISANG input file:
# Anchor atoms :93@CA :62@CA :258@CA :287@C9 :287@C3 :287@C7  comp=z

                       Number of restraints read =    21

                  Done reading weight changes/NMR restraints

 Number of triangulated 3-point waters found:    17974
 Number of shake restraints removed in TI region  1 :        0
 Number of shake restraints removed in TI region  2 :        0

     Sum of charges for TI region  1 =   0.00000156
     Skip neutralizing charges...

     Sum of charges for TI region  2 =   0.00000156
     Skip neutralizing charges...

--------------------------------------------------------------------------------
   4.  RESULTS
 NSTEP =        0   TIME(PS) =       0.000  TEMP(K) =     0.00  PRESS =     0.0
 Etot   =   -294585.6619  EKtot   =         0.0000  EPtot      =   -294585.6619
 BOND   =     17652.1262  ANGLE   =      1870.7638  DIHED      =      8571.0043
 1-4 NB =      2929.9400  1-4 EEL =    -12137.8614  VDWAALS    =     24778.1267
 EELEC  =   -338274.5521  EHBOND  =         0.0000  RESTRAINT  =        24.7906
 EAMBER (non-restraint)  =   -294610.4525
 DV/DL  =        29.1798
 ------------------------------------------------------------------------------

      A V E R A G E S   O V E R       5 S T E P S

 NSTEP =     5000   TIME(PS) =       5.000  TEMP(K) =   270.67  PRESS =     0.0
 Etot   =   -181771.9230  EKtot   =     47093.2589  EPtot      =   -228865.1818
 BOND   =      3347.0813  ANGLE   =     12583.5530  DIHED      =     10471.5512
 1-4 NB =      3552.3925  1-4 EEL =    -12182.1770  VDWAALS    =     15278.5598
 EELEC  =   -262090.9953  EHBOND  =         0.0000  RESTRAINT  =       174.8527
 EAMBER (non-restraint)  =   -229040.0345
 DV/DL  =        91.9566
 ------------------------------------------------------------------------------

      R M S  F L U C T U A T I O N S

 NSTEP =     5000   TIME(PS) =       5.000  TEMP(K) =    38.42  PRESS =     0.0
 Etot   =     16330.0233  EKtot   =      6684.8056  EPtot      =      9657.1460
 BOND   =       468.9587  ANGLE   =      1624.9710  DIHED      =       322.3317
 1-4 NB =       108.4950  1-4 EEL =        51.2453  VDWAALS    =      2204.1955
 EELEC  =      9332.7224  EHBOND  =         0.0000  RESTRAINT  =        24.2007
 EAMBER (non-restraint)  =      9632.9453
 DV/DL  =        25.5093
 ------------------------------------------------------------------------------

      A V E R A G E S   O V E R       5 S T E P S

 NSTEP =     5000   TIME(PS) =       5.000  TEMP(K) =   270.71  PRESS =     0.0
 Etot   =   -181765.7086  EKtot   =     47099.4733  EPtot      =   -228865.1818
 BOND   =      3347.0813  ANGLE   =     12583.5530  DIHED      =     10471.5512
 1-4 NB =      3552.3925  1-4 EEL =    -12182.1770  VDWAALS    =     15278.5598
 EELEC  =   -262090.9953  EHBOND  =         0.0000  RESTRAINT  =       174.8527
 EAMBER (non-restraint)  =   -229040.0345
 DV/DL  =        91.9566
 ------------------------------------------------------------------------------

      R M S  F L U C T U A T I O N S

 NSTEP =     5000   TIME(PS) =       5.000  TEMP(K) =    38.44  PRESS =     0.0
 Etot   =     16332.6515  EKtot   =      6687.3816  EPtot      =      9657.1460
 BOND   =       468.9587  ANGLE   =      1624.9710  DIHED      =       322.3317
 1-4 NB =       108.4950  1-4 EEL =        51.2453  VDWAALS    =      2204.1955
 EELEC  =      9332.7224  EHBOND  =         0.0000  RESTRAINT  =        24.2007
 EAMBER (non-restraint)  =      9632.9453
 DV/DL  =        25.5093
 ------------------------------------------------------------------------------

      DV/DL, AVERAGES OVER       5 STEPS

 NSTEP =     5000   TIME(PS) =       5.000  TEMP(K) =    38.44  PRESS =     0.0
 Etot   =         0.0000  EKtot   =         0.0000  EPtot      =        91.9566
 BOND   =         0.0000  ANGLE   =         0.0000  DIHED      =         2.1117
 1-4 NB =         5.4690  1-4 EEL =         3.4643  VDWAALS    =        42.4532
 EELEC  =       -71.1468  EHBOND  =         0.0000  RESTRAINT  =         0.0000
 DV/DL  =        91.9566
 ------------------------------------------------------------------------------
