-------------------------------------------------------
          Amber 24 PMEMD                              2024
          -------------------------------------------------------

  [-O]verwriting output

File Assignments:

 Here is the input file:

*******************************************************
*****************************       eqnpt.in
*******************************************************
Equilibrate, NPT.
 &cntrl
  imin = 0,
  ntx = 1,
  ntxo = 1,
  irest = 0,
  ntpr = 1000,
  ntwr = 1000,
  ntwx = 1000,
  ioutfm = 1,
  iwrap = 1,
  ntf = 1,
  ntc = 2,
  cut = 9.0,
  ntt = 3,
  temp0 = 310.0,
  gamma_ln = 1.0,
  ig = -1,
  ntp = 3,
  csurften = 3,
  mcbarint = 10,
  barostat = 1,
  nstlim = 3000,
  dt = 0.001,
  nmropt = 0,
  pencut = -1,
  ntr = 1,
  restraint_wt = 50.0,
  restraintmask = '(@CA,C,N,P31 | :g1i) & !@H=',
  infe = 0,
 /
 &pmd
 output_file = 'cmass.txt'
 output_freq = 1000
 cv_file = 'cv.in'
 /
 &wt type = 'END', /
DISANG=disang.rest
LISTOUT=POUT

Note: ig = -1. Setting random seed to   239672 based on wallclock time in
      microseconds and disabling the synchronization of random numbers
      between tasks to improve performance.

--------------------------------------------------------------------------------
   1.  RESOURCE   USE:
--------------------------------------------------------------------------------

 getting new box info from bottom of inpcrd
 NATOM  =   79056 NTYPES =      31 NBONH =   67649 MBONA  =   11189
 NTHETH =   39394 MTHETA =   13431 NPHIH =   68217 MPHIA  =   45151
 NHPARM =       0 NPARM  =       0 NNB   =  223427 NRES   =   17943
 NBONA  =   11189 NTHETA =   13431 NPHIA =   45151 NUMBND =      97
 NUMANG =     210 NPTRA  =     269 NATYP =      63 NPHB   =       0
 IFBOX  =       1 NMXRS  =      50 IFCAP =       0 NEXTRA =       0
 NCOPY  =       0

     BOX TYPE: RECTILINEAR

--------------------------------------------------------------------------------
   2.  CONTROL  DATA  FOR  THE  RUN
--------------------------------------------------------------------------------

default_name

General flags:
     imin    =       0, nmropt  =       0

Nature and format of input:
     ntx     =       1, irest   =       0, ntrx    =       1

Nature and format of output:
     ntxo    =       1, ntpr    =    1000, ntrx    =       1, ntwr    =    1000
     iwrap   =       1, ntwx    =    1000, ntwv    =       0, ntwe    =       0
     ioutfm  =       1, ntwprt  =       0, idecomp =       0, rbornstat=      0

Potential function:
     ntf     =       1, ntb     =       2, igb     =       0, nsnb    =      25
     ipol    =       0, gbsa    =       0, iesp    =       0
     dielc   =   1.00000, cut     =   9.00000, intdiel =   1.00000

Frozen or restrained atoms:
     ibelly  =       0, ntr     =       1
     restraint_wt =  50.00000

Molecular dynamics:
     nstlim  =      3000, nscm    =         0, nrespa  =         1
     t       =   0.00000, dt      =   0.00100, vlimit  =  20.00000

Langevin dynamics temperature regulation:
     ig      =  239672
     temp0   = 310.00000, tempi   =   0.00000, gamma_ln=   1.00000

Pressure regulation:
     ntp     =       3
     pres0   =   1.00000, comp    =  44.60000, taup    =   1.00000

Constant surface tension:
     csurften  =       3
     gamma_ten =   0.00000 ninterface =       2

SHAKE:
     ntc     =       2, jfastw  =       0
     tol     =   0.00001

Ewald parameters:
     verbose =       0, ew_type =       0, nbflag  =       1, use_pme =       1
     vdwmeth =       1, eedmeth =       1, netfrc  =       1
     Box X =   94.010   Box Y =   84.985   Box Z =  111.368
     Alpha =   90.000   Beta  =   90.000   Gamma =   90.000
     NFFT1 =   96       NFFT2 =   90       NFFT3 =  120
     Cutoff=    9.000   Tol   =0.100E-04
     Ewald Coefficient =  0.30768
     Interpolation order =    4

    LOADING THE CONSTRAINED ATOMS AS GROUPS

   5.  REFERENCE ATOM COORDINATES

  default_name
     Mask (@CA,C,N,P31 | :g1i) & !@H=; matches  1040 atoms

--------------------------------------------------------------------------------
   3.  ATOMIC COORDINATES AND VELOCITIES
--------------------------------------------------------------------------------

default_name
 begin time read from input coords =    10.000 ps

 Number of triangulated 3-point waters found:    17035

     Sum of charges from parm topology file =   0.00200256
     Forcing neutrality...

--------------------------------------------------------------------------------
   4.  RESULTS
 NSTEP =        0   TIME(PS) =       0.000  TEMP(K) =     0.00  PRESS = -2039.1
 Etot   =   -202685.1760  EKtot   =         0.0000  EPtot      =   -202685.1760
 BOND   =      3709.4114  ANGLE   =     13876.2919  DIHED      =     10973.2809
 1-4 NB =      3727.9935  1-4 EEL =    -12095.4378  VDWAALS    =     10863.5933
 EELEC  =   -233740.3092  EHBOND  =         0.0000  RESTRAINT  =         0.0000
 EKCMT  =         0.0000  VIRIAL  =     39173.3754  VOLUME     =    889767.9347
                                                    SURFTEN    =         0.0000
                                                    Density    =         0.8854
 Ewald error estimate:   0.5604E-04
 ------------------------------------------------------------------------------

      A V E R A G E S   O V E R       3 S T E P S

 NSTEP =     3000   TIME(PS) =       3.000  TEMP(K) =   283.21  PRESS =  -379.6
 Etot   =   -166030.7908  EKtot   =     47702.6339  EPtot      =   -213733.4247
 BOND   =      3433.3978  ANGLE   =     12976.6854  DIHED      =     10755.1673
 1-4 NB =      3671.2025  1-4 EEL =    -12217.4132  VDWAALS    =     13781.7906
 EELEC  =   -246645.5627  EHBOND  =         0.0000  RESTRAINT  =       511.3075
 EAMBER (non-restraint)  =   -214244.7323
 EKCMT  =     14735.3517  VIRIAL  =     21570.0682  VOLUME     =    830374.2529
                                                    SURFTEN    =      -130.5140
                                                    Density    =         0.9488
 Ewald error estimate:   0.6434E-04
 ------------------------------------------------------------------------------

      R M S  F L U C T U A T I O N S

 NSTEP =     3000   TIME(PS) =       3.000  TEMP(K) =    17.02  PRESS =   129.8
 Etot   =      6594.8140  EKtot   =      2867.5364  EPtot      =      3727.3128
 BOND   =       205.4443  ANGLE   =       832.8633  DIHED      =       171.6473
 1-4 NB =        55.9890  1-4 EEL =        38.0084  VDWAALS    =      1063.9015
 EELEC  =      3482.2549  EHBOND  =         0.0000  RESTRAINT  =        10.0437
 EAMBER (non-restraint)  =      3717.2691
 EKCMT  =       743.4162  VIRIAL  =      1695.6447  VOLUME     =     10328.6948
                                                    SURFTEN    =        76.9764
                                                    Density    =         0.0118
 Ewald error estimate:   0.3670E-04
 ------------------------------------------------------------------------------
