-------------------------------------------------------
          Amber 24 PMEMD                              2024
          -------------------------------------------------------

  [-O]verwriting output

File Assignments:

 Here is the input file:

*******************************************************
*****************************       eqnpt.in
*******************************************************
Equilibrate, NPT.
 &cntrl
  imin = 0,
  ntx = 5,
  ntxo = 1,
  irest = 1,
  ntpr = 2000,
  ntwr = 2000,
  ntwx = 2000,
  ioutfm = 1,
  iwrap = 1,
  ntf = 1,
  ntc = 2,
  cut = 9.0,
  ntt = 3,
  temp0 = 310.0,
  gamma_ln = 1.0,
  ig = -1,
  ntp = 3,
  csurften = 3,
  barostat = 1,
  nstlim = 20000,
  dt = 0.001,
  nmropt = 0,
  pencut = -1,
  ntr = 1,
 restraint_wt = 10,
  restraintmask = "((@CA | :g1i) & !@H=) | ((:28,31-51,104-131,195-218,263-284)
  infe = 0,
  mcwat = 1,
  nmd = 100,
  nmc = 1000,
  mcwatmask = ":g1i",
  mcligshift = 40,
  mcresstr = "WAT",
 /
 &pmd
 output_file = 'cmass.txt'
 output_freq = 1000
 cv_file = 'cv.in'
 /
 &wt type = 'END', /
DISANG=disang.rest
LISTOUT=POUT

Note: ig = -1. Setting random seed to   621677 based on wallclock time in
      microseconds.

--------------------------------------------------------------------------------
   1.  RESOURCE   USE:
--------------------------------------------------------------------------------

 getting new box info from bottom of inpcrd
 NATOM  =   79056 NTYPES =      31 NBONH =   67649 MBONA  =   11189
 NTHETH =   39394 MTHETA =   13431 NPHIH =   68217 MPHIA  =   45151
 NHPARM =       0 NPARM  =       0 NNB   =  223427 NRES   =   17943
 NBONA  =   11189 NTHETA =   13431 NPHIA =   45151 NUMBND =      97
 NUMANG =     210 NPTRA  =     269 NATYP =      63 NPHB   =       0
 IFBOX  =       1 NMXRS  =      50 IFCAP =       0 NEXTRA =       0
 NCOPY  =       0

     BOX TYPE: RECTILINEAR

--------------------------------------------------------------------------------
   2.  CONTROL  DATA  FOR  THE  RUN
--------------------------------------------------------------------------------

default_name

General flags:
     imin    =       0, nmropt  =       0

Nature and format of input:
     ntx     =       5, irest   =       1, ntrx    =       1

Nature and format of output:
     ntxo    =       1, ntpr    =    2000, ntrx    =       1, ntwr    =    2000
     iwrap   =       1, ntwx    =    2000, ntwv    =       0, ntwe    =       0
     ioutfm  =       1, ntwprt  =       0, idecomp =       0, rbornstat=      0

Potential function:
     ntf     =       1, ntb     =       2, igb     =       0, nsnb    =      25
     ipol    =       0, gbsa    =       0, iesp    =       0
     dielc   =   1.00000, cut     =   9.00000, intdiel =   1.00000

Frozen or restrained atoms:
     ibelly  =       0, ntr     =       1
     restraint_wt =  10.00000

Molecular dynamics:
     nstlim  =     20000, nscm    =         0, nrespa  =         1
     t       =   0.00000, dt      =   0.00100, vlimit  =  -1.00000

Langevin dynamics temperature regulation:
     ig      =  621677
     temp0   = 310.00000, tempi   =   0.00000, gamma_ln=   1.00000

Pressure regulation:
     ntp     =       3
     pres0   =   1.00000, comp    =  44.60000, taup    =   1.00000

Constant surface tension:
     csurften  =       3
     gamma_ten =   0.00000 ninterface =       2

SHAKE:
     ntc     =       2, jfastw  =       0
     tol     =   0.00001

Ewald parameters:
     verbose =       0, ew_type =       0, nbflag  =       1, use_pme =       1
     vdwmeth =       1, eedmeth =       1, netfrc  =       1
     Box X =   91.647   Box Y =   82.849   Box Z =  107.881
     Alpha =   90.000   Beta  =   90.000   Gamma =   90.000
     NFFT1 =   96       NFFT2 =   84       NFFT3 =  108
     Cutoff=    9.000   Tol   =0.100E-04
     Ewald Coefficient =  0.30768
     Interpolation order =    4

    LOADING THE CONSTRAINED ATOMS AS GROUPS

   5.  REFERENCE ATOM COORDINATES

  default_name
     Mask ((@CA | :g1i) & !@H=) | ((:28,31-51,104-131,195-218,263-284) & @CA); matches   299 atoms

--------------------------------------------------------------------------------
   3.  ATOMIC COORDINATES AND VELOCITIES
--------------------------------------------------------------------------------

default_name
 begin time read from input coords =     3.000 ps

 Number of triangulated 3-point waters found:    17035

     Sum of charges from parm topology file =   0.00200256
     Forcing neutrality...

--------------------------------------------------------------------------------
   4.  RESULTS
 NSTEP =     2000   TIME(PS) =       5.000  TEMP(K) =   307.98  PRESS =  -449.0
 Etot   =   -156333.4853  EKtot   =     51874.6719  EPtot      =   -208208.1572
 BOND   =      3792.2897  ANGLE   =     14048.3031  DIHED      =     10984.3102
 1-4 NB =      3726.5914  1-4 EEL =    -12283.3419  VDWAALS    =     11955.6395
 EELEC  =   -240569.9297  EHBOND  =         0.0000  RESTRAINT  =       137.9806
 EAMBER (non-restraint)  =   -208346.1377
 EKCMT  =     16115.3181  VIRIAL  =     24036.4955  VOLUME     =    817170.5792
                                                    SURFTEN    =        -3.0618
                                                    Density    =         0.9640
 ------------------------------------------------------------------------------

      A V E R A G E S   O V E R      10 S T E P S

 NSTEP =    20000   TIME(PS) =      23.000  TEMP(K) =   309.18  PRESS =  -420.5
 Etot   =   -155494.1426  EKtot   =     52075.6316  EPtot      =   -207569.7743
 BOND   =      3781.2886  ANGLE   =     14021.1332  DIHED      =     10904.4188
 1-4 NB =      3683.1158  1-4 EEL =    -12253.6239  VDWAALS    =     11893.5980
 EELEC  =   -239740.4132  EHBOND  =         0.0000  RESTRAINT  =       140.7084
 EAMBER (non-restraint)  =   -207710.4827
 EKCMT  =     15980.4490  VIRIAL  =     23400.9820  VOLUME     =    817293.3771
                                                    SURFTEN    =        -9.9549
                                                    Density    =         0.9639
 ------------------------------------------------------------------------------

      R M S  F L U C T U A T I O N S

 NSTEP =    20000   TIME(PS) =      23.000  TEMP(K) =     0.65  PRESS =    53.0
 Etot   =       438.2889  EKtot   =       108.8846  EPtot      =       378.2607
 BOND   =        44.8428  ANGLE   =        70.4598  DIHED      =        59.0697
 1-4 NB =        28.9202  1-4 EEL =        26.9954  VDWAALS    =       128.0732
 EELEC  =       484.8949  EHBOND  =         0.0000  RESTRAINT  =         8.7755
 EAMBER (non-restraint)  =       369.4852
 EKCMT  =        79.1105  VIRIAL  =       970.0131  VOLUME     =       126.1417
                                                    SURFTEN    =        69.1044
                                                    Density    =         0.0001
 ------------------------------------------------------------------------------
