-------------------------------------------------------
          Amber 24 PMEMD                              2024
          -------------------------------------------------------

  [-O]verwriting output

File Assignments:

 Here is the input file:

*******************************************************
*****************************       eqnpt.in
*******************************************************
Equilibrate, NPT.
 &cntrl
  imin = 0,
  ntx = 5,
  ntxo = 1,
  irest = 1,
  ntpr = 2000,
  ntwr = 2000,
  ntwx = 2000,
  ioutfm = 1,
  iwrap = 1,
  ntf = 1,
  ntc = 2,
  cut = 9.0,
  ntt = 3,
  temp0 = 310.0,
  gamma_ln = 1.0,
  ig = -1,
  ntp = 3,
  csurften = 3,
  barostat = 1,
  nstlim = 20000,
  dt = 0.001,
  nmropt = 0,
  pencut = -1,
  ntr = 1,
 restraint_wt = 10,
  restraintmask = "((@CA | :g1i) & !@H=) | ((:28,31-51,104-131,195-218,263-284)
  infe = 0,
  mcwat = 1,
  nmd = 100,
  nmc = 1000,
  mcwatmask = ":g1i",
  mcligshift = 40,
  mcresstr = "WAT",
 /
 &pmd
 output_file = 'cmass.txt'
 output_freq = 1000
 cv_file = 'cv.in'
 /
 &wt type = 'END', /
DISANG=disang.rest
LISTOUT=POUT

Note: ig = -1. Setting random seed to   267997 based on wallclock time in
      microseconds.

--------------------------------------------------------------------------------
   1.  RESOURCE   USE:
--------------------------------------------------------------------------------

 getting new box info from bottom of inpcrd
 NATOM  =   79056 NTYPES =      31 NBONH =   67649 MBONA  =   11189
 NTHETH =   39394 MTHETA =   13431 NPHIH =   68217 MPHIA  =   45151
 NHPARM =       0 NPARM  =       0 NNB   =  223427 NRES   =   17943
 NBONA  =   11189 NTHETA =   13431 NPHIA =   45151 NUMBND =      97
 NUMANG =     210 NPTRA  =     269 NATYP =      63 NPHB   =       0
 IFBOX  =       1 NMXRS  =      50 IFCAP =       0 NEXTRA =       0
 NCOPY  =       0

     BOX TYPE: RECTILINEAR

--------------------------------------------------------------------------------
   2.  CONTROL  DATA  FOR  THE  RUN
--------------------------------------------------------------------------------

default_name

General flags:
     imin    =       0, nmropt  =       0

Nature and format of input:
     ntx     =       5, irest   =       1, ntrx    =       1

Nature and format of output:
     ntxo    =       1, ntpr    =    2000, ntrx    =       1, ntwr    =    2000
     iwrap   =       1, ntwx    =    2000, ntwv    =       0, ntwe    =       0
     ioutfm  =       1, ntwprt  =       0, idecomp =       0, rbornstat=      0

Potential function:
     ntf     =       1, ntb     =       2, igb     =       0, nsnb    =      25
     ipol    =       0, gbsa    =       0, iesp    =       0
     dielc   =   1.00000, cut     =   9.00000, intdiel =   1.00000

Frozen or restrained atoms:
     ibelly  =       0, ntr     =       1
     restraint_wt =  10.00000

Molecular dynamics:
     nstlim  =     20000, nscm    =         0, nrespa  =         1
     t       =   0.00000, dt      =   0.00100, vlimit  =  -1.00000

Langevin dynamics temperature regulation:
     ig      =  267997
     temp0   = 310.00000, tempi   =   0.00000, gamma_ln=   1.00000

Pressure regulation:
     ntp     =       3
     pres0   =   1.00000, comp    =  44.60000, taup    =   1.00000

Constant surface tension:
     csurften  =       3
     gamma_ten =   0.00000 ninterface =       2

SHAKE:
     ntc     =       2, jfastw  =       0
     tol     =   0.00001

Ewald parameters:
     verbose =       0, ew_type =       0, nbflag  =       1, use_pme =       1
     vdwmeth =       1, eedmeth =       1, netfrc  =       1
     Box X =   91.421   Box Y =   82.644   Box Z =  107.636
     Alpha =   90.000   Beta  =   90.000   Gamma =   90.000
     NFFT1 =   96       NFFT2 =   84       NFFT3 =  108
     Cutoff=    9.000   Tol   =0.100E-04
     Ewald Coefficient =  0.30768
     Interpolation order =    4

    LOADING THE CONSTRAINED ATOMS AS GROUPS

   5.  REFERENCE ATOM COORDINATES

  default_name
     Mask ((@CA | :g1i) & !@H=) | ((:28,31-51,104-131,195-218,263-284) & @CA); matches   299 atoms

--------------------------------------------------------------------------------
   3.  ATOMIC COORDINATES AND VELOCITIES
--------------------------------------------------------------------------------

default_name
 begin time read from input coords =    63.000 ps

 Number of triangulated 3-point waters found:    17035

     Sum of charges from parm topology file =   0.00200256
     Forcing neutrality...

--------------------------------------------------------------------------------
   4.  RESULTS
 NSTEP =     2000   TIME(PS) =      65.000  TEMP(K) =   308.52  PRESS =  -411.7
 Etot   =   -155672.6187  EKtot   =     51965.1250  EPtot      =   -207637.7437
 BOND   =      3749.7891  ANGLE   =     13951.8784  DIHED      =     10856.5289
 1-4 NB =      3655.5597  1-4 EEL =    -12140.6069  VDWAALS    =     11603.1096
 EELEC  =   -239434.1414  EHBOND  =         0.0000  RESTRAINT  =       120.1389
 EAMBER (non-restraint)  =   -207757.8826
 EKCMT  =     15941.7174  VIRIAL  =     23151.5142  VOLUME     =    811141.6639
                                                    SURFTEN    =        95.3668
                                                    Density    =         0.9712
 ------------------------------------------------------------------------------

      A V E R A G E S   O V E R      10 S T E P S

 NSTEP =    20000   TIME(PS) =      83.000  TEMP(K) =   309.71  PRESS =  -426.4
 Etot   =   -155792.6636  EKtot   =     52166.0738  EPtot      =   -207958.7374
 BOND   =      3794.4150  ANGLE   =     13985.8228  DIHED      =     10803.8526
 1-4 NB =      3638.8995  1-4 EEL =    -12162.3880  VDWAALS    =     11741.3803
 EELEC  =   -239889.0782  EHBOND  =         0.0000  RESTRAINT  =       128.3585
 EAMBER (non-restraint)  =   -208087.0959
 EKCMT  =     16047.6489  VIRIAL  =     23515.5500  VOLUME     =    811201.2444
                                                    SURFTEN    =        71.6139
                                                    Density    =         0.9711
 ------------------------------------------------------------------------------

      R M S  F L U C T U A T I O N S

 NSTEP =    20000   TIME(PS) =      83.000  TEMP(K) =     1.05  PRESS =    42.6
 Etot   =       169.6212  EKtot   =       176.5686  EPtot      =       191.3316
 BOND   =        37.6985  ANGLE   =        75.0696  DIHED      =        32.6868
 1-4 NB =        24.4577  1-4 EEL =        62.2240  VDWAALS    =       141.4339
 EELEC  =       296.3814  EHBOND  =         0.0000  RESTRAINT  =         6.2100
 EAMBER (non-restraint)  =       185.1216
 EKCMT  =       136.6058  VIRIAL  =       785.1671  VOLUME     =       137.7107
                                                    SURFTEN    =        76.8926
                                                    Density    =         0.0002
 ------------------------------------------------------------------------------
