-------------------------------------------------------
          Amber 24 PMEMD                              2024
          -------------------------------------------------------

  [-O]verwriting output

File Assignments:

 Here is the input file:

*******************************************************
*****************************       eqnpt.in
*******************************************************
Equilibrate, NPT.
 &cntrl
  imin = 0,
  ntx = 5,
  ntxo = 1,
  irest = 1,
  ntpr = 2000,
  ntwr = 2000,
  ntwx = 2000,
  ioutfm = 1,
  iwrap = 1,
  ntf = 1,
  ntc = 2,
  cut = 9.0,
  ntt = 3,
  temp0 = 310.0,
  gamma_ln = 1.0,
  ig = -1,
  ntp = 3,
  csurften = 3,
  barostat = 1,
  nstlim = 20000,
  dt = 0.001,
  nmropt = 0,
  pencut = -1,
  ntr = 1,
 restraint_wt = 10,
  restraintmask = "((@CA | :g1i) & !@H=) | ((:28,31-51,104-131,195-218,263-284)
  infe = 0,
  mcwat = 1,
  nmd = 100,
  nmc = 1000,
  mcwatmask = ":g1i",
  mcligshift = 40,
  mcresstr = "WAT",
 /
 &pmd
 output_file = 'cmass.txt'
 output_freq = 1000
 cv_file = 'cv.in'
 /
 &wt type = 'END', /
DISANG=disang.rest
LISTOUT=POUT

Note: ig = -1. Setting random seed to   136067 based on wallclock time in
      microseconds.

--------------------------------------------------------------------------------
   1.  RESOURCE   USE:
--------------------------------------------------------------------------------

 getting new box info from bottom of inpcrd
 NATOM  =   79056 NTYPES =      31 NBONH =   67649 MBONA  =   11189
 NTHETH =   39394 MTHETA =   13431 NPHIH =   68217 MPHIA  =   45151
 NHPARM =       0 NPARM  =       0 NNB   =  223427 NRES   =   17943
 NBONA  =   11189 NTHETA =   13431 NPHIA =   45151 NUMBND =      97
 NUMANG =     210 NPTRA  =     269 NATYP =      63 NPHB   =       0
 IFBOX  =       1 NMXRS  =      50 IFCAP =       0 NEXTRA =       0
 NCOPY  =       0

     BOX TYPE: RECTILINEAR

--------------------------------------------------------------------------------
   2.  CONTROL  DATA  FOR  THE  RUN
--------------------------------------------------------------------------------

default_name

General flags:
     imin    =       0, nmropt  =       0

Nature and format of input:
     ntx     =       5, irest   =       1, ntrx    =       1

Nature and format of output:
     ntxo    =       1, ntpr    =    2000, ntrx    =       1, ntwr    =    2000
     iwrap   =       1, ntwx    =    2000, ntwv    =       0, ntwe    =       0
     ioutfm  =       1, ntwprt  =       0, idecomp =       0, rbornstat=      0

Potential function:
     ntf     =       1, ntb     =       2, igb     =       0, nsnb    =      25
     ipol    =       0, gbsa    =       0, iesp    =       0
     dielc   =   1.00000, cut     =   9.00000, intdiel =   1.00000

Frozen or restrained atoms:
     ibelly  =       0, ntr     =       1
     restraint_wt =  10.00000

Molecular dynamics:
     nstlim  =     20000, nscm    =         0, nrespa  =         1
     t       =   0.00000, dt      =   0.00100, vlimit  =  -1.00000

Langevin dynamics temperature regulation:
     ig      =  136067
     temp0   = 310.00000, tempi   =   0.00000, gamma_ln=   1.00000

Pressure regulation:
     ntp     =       3
     pres0   =   1.00000, comp    =  44.60000, taup    =   1.00000

Constant surface tension:
     csurften  =       3
     gamma_ten =   0.00000 ninterface =       2

SHAKE:
     ntc     =       2, jfastw  =       0
     tol     =   0.00001

Ewald parameters:
     verbose =       0, ew_type =       0, nbflag  =       1, use_pme =       1
     vdwmeth =       1, eedmeth =       1, netfrc  =       1
     Box X =   91.573   Box Y =   82.782   Box Z =  107.805
     Alpha =   90.000   Beta  =   90.000   Gamma =   90.000
     NFFT1 =   96       NFFT2 =   84       NFFT3 =  108
     Cutoff=    9.000   Tol   =0.100E-04
     Ewald Coefficient =  0.30768
     Interpolation order =    4

    LOADING THE CONSTRAINED ATOMS AS GROUPS

   5.  REFERENCE ATOM COORDINATES

  default_name
     Mask ((@CA | :g1i) & !@H=) | ((:28,31-51,104-131,195-218,263-284) & @CA); matches   299 atoms

--------------------------------------------------------------------------------
   3.  ATOMIC COORDINATES AND VELOCITIES
--------------------------------------------------------------------------------

default_name
 begin time read from input coords =    23.000 ps

 Number of triangulated 3-point waters found:    17035

     Sum of charges from parm topology file =   0.00200256
     Forcing neutrality...

--------------------------------------------------------------------------------
   4.  RESULTS
 NSTEP =     2000   TIME(PS) =      25.000  TEMP(K) =   308.07  PRESS =  -395.5
 Etot   =   -155805.1343  EKtot   =     51889.4688  EPtot      =   -207694.6031
 BOND   =      3724.0818  ANGLE   =     13832.6294  DIHED      =     10883.9057
 1-4 NB =      3646.2312  1-4 EEL =    -12221.1998  VDWAALS    =     11573.1439
 EELEC  =   -239255.1242  EHBOND  =         0.0000  RESTRAINT  =       121.7289
 EAMBER (non-restraint)  =   -207816.3320
 EKCMT  =     15960.1896  VIRIAL  =     22920.3954  VOLUME     =    815099.8538
                                                    SURFTEN    =        38.5861
                                                    Density    =         0.9665
 ------------------------------------------------------------------------------

      A V E R A G E S   O V E R      10 S T E P S

 NSTEP =    20000   TIME(PS) =      43.000  TEMP(K) =   309.78  PRESS =  -429.5
 Etot   =   -155413.1162  EKtot   =     52176.5715  EPtot      =   -207589.6877
 BOND   =      3786.4941  ANGLE   =     13991.2415  DIHED      =     10845.7183
 1-4 NB =      3684.4422  1-4 EEL =    -12237.4470  VDWAALS    =     11784.3544
 EELEC  =   -239578.5361  EHBOND  =         0.0000  RESTRAINT  =       134.0450
 EAMBER (non-restraint)  =   -207723.7327
 EKCMT  =     16010.0348  VIRIAL  =     23571.8506  VOLUME     =    815379.9783
                                                    SURFTEN    =        13.8196
                                                    Density    =         0.9661
 ------------------------------------------------------------------------------

      R M S  F L U C T U A T I O N S

 NSTEP =    20000   TIME(PS) =      43.000  TEMP(K) =     1.17  PRESS =    70.9
 Etot   =       189.7960  EKtot   =       197.7172  EPtot      =       127.6168
 BOND   =        34.5331  ANGLE   =        73.2318  DIHED      =        64.1374
 1-4 NB =        22.4927  1-4 EEL =        48.9128  VDWAALS    =       132.8356
 EELEC  =       194.1074  EHBOND  =         0.0000  RESTRAINT  =         6.8855
 EAMBER (non-restraint)  =       120.7313
 EKCMT  =        72.6932  VIRIAL  =      1235.3368  VOLUME     =       224.8779
                                                    SURFTEN    =        92.7420
                                                    Density    =         0.0003
 ------------------------------------------------------------------------------
