-------------------------------------------------------
          Amber 24 PMEMD                              2024
          -------------------------------------------------------

  [-O]verwriting output

File Assignments:

 Here is the input file:

*******************************************************
*****************************       eqnpt.in
*******************************************************
Equilibrate, NPT.
 &cntrl
  imin = 0,
  ntx = 5,
  ntxo = 1,
  irest = 1,
  ntpr = 2000,
  ntwr = 2000,
  ntwx = 2000,
  ioutfm = 1,
  iwrap = 1,
  ntf = 1,
  ntc = 2,
  cut = 9.0,
  ntt = 3,
  temp0 = 310.0,
  gamma_ln = 1.0,
  ig = -1,
  ntp = 3,
  csurften = 3,
  barostat = 1,
  nstlim = 20000,
  dt = 0.001,
  nmropt = 0,
  pencut = -1,
  ntr = 1,
 restraint_wt = 10,
  restraintmask = "((@CA | :g1i) & !@H=) | ((:28,31-51,104-131,195-218,263-284)
  infe = 0,
  mcwat = 1,
  nmd = 100,
  nmc = 1000,
  mcwatmask = ":g1i",
  mcligshift = 40,
  mcresstr = "WAT",
 /
 &pmd
 output_file = 'cmass.txt'
 output_freq = 1000
 cv_file = 'cv.in'
 /
 &wt type = 'END', /
DISANG=disang.rest
LISTOUT=POUT

Note: ig = -1. Setting random seed to   210999 based on wallclock time in
      microseconds.

--------------------------------------------------------------------------------
   1.  RESOURCE   USE:
--------------------------------------------------------------------------------

 getting new box info from bottom of inpcrd
 NATOM  =   79056 NTYPES =      31 NBONH =   67649 MBONA  =   11189
 NTHETH =   39394 MTHETA =   13431 NPHIH =   68217 MPHIA  =   45151
 NHPARM =       0 NPARM  =       0 NNB   =  223427 NRES   =   17943
 NBONA  =   11189 NTHETA =   13431 NPHIA =   45151 NUMBND =      97
 NUMANG =     210 NPTRA  =     269 NATYP =      63 NPHB   =       0
 IFBOX  =       1 NMXRS  =      50 IFCAP =       0 NEXTRA =       0
 NCOPY  =       0

     BOX TYPE: RECTILINEAR

--------------------------------------------------------------------------------
   2.  CONTROL  DATA  FOR  THE  RUN
--------------------------------------------------------------------------------

default_name

General flags:
     imin    =       0, nmropt  =       0

Nature and format of input:
     ntx     =       5, irest   =       1, ntrx    =       1

Nature and format of output:
     ntxo    =       1, ntpr    =    2000, ntrx    =       1, ntwr    =    2000
     iwrap   =       1, ntwx    =    2000, ntwv    =       0, ntwe    =       0
     ioutfm  =       1, ntwprt  =       0, idecomp =       0, rbornstat=      0

Potential function:
     ntf     =       1, ntb     =       2, igb     =       0, nsnb    =      25
     ipol    =       0, gbsa    =       0, iesp    =       0
     dielc   =   1.00000, cut     =   9.00000, intdiel =   1.00000

Frozen or restrained atoms:
     ibelly  =       0, ntr     =       1
     restraint_wt =  10.00000

Molecular dynamics:
     nstlim  =     20000, nscm    =         0, nrespa  =         1
     t       =   0.00000, dt      =   0.00100, vlimit  =  -1.00000

Langevin dynamics temperature regulation:
     ig      =  210999
     temp0   = 310.00000, tempi   =   0.00000, gamma_ln=   1.00000

Pressure regulation:
     ntp     =       3
     pres0   =   1.00000, comp    =  44.60000, taup    =   1.00000

Constant surface tension:
     csurften  =       3
     gamma_ten =   0.00000 ninterface =       2

SHAKE:
     ntc     =       2, jfastw  =       0
     tol     =   0.00001

Ewald parameters:
     verbose =       0, ew_type =       0, nbflag  =       1, use_pme =       1
     vdwmeth =       1, eedmeth =       1, netfrc  =       1
     Box X =   91.332   Box Y =   82.564   Box Z =  107.576
     Alpha =   90.000   Beta  =   90.000   Gamma =   90.000
     NFFT1 =   96       NFFT2 =   84       NFFT3 =  108
     Cutoff=    9.000   Tol   =0.100E-04
     Ewald Coefficient =  0.30768
     Interpolation order =    4

    LOADING THE CONSTRAINED ATOMS AS GROUPS

   5.  REFERENCE ATOM COORDINATES

  default_name
     Mask ((@CA | :g1i) & !@H=) | ((:28,31-51,104-131,195-218,263-284) & @CA); matches   299 atoms

--------------------------------------------------------------------------------
   3.  ATOMIC COORDINATES AND VELOCITIES
--------------------------------------------------------------------------------

default_name
 begin time read from input coords =    83.000 ps

 Number of triangulated 3-point waters found:    17035

     Sum of charges from parm topology file =   0.00200256
     Forcing neutrality...

--------------------------------------------------------------------------------
   4.  RESULTS
 NSTEP =     2000   TIME(PS) =      85.000  TEMP(K) =   310.89  PRESS =  -324.5
 Etot   =   -155755.7829  EKtot   =     52364.7461  EPtot      =   -208120.5290
 BOND   =      3788.0703  ANGLE   =     13859.5872  DIHED      =     10868.3923
 1-4 NB =      3678.6958  1-4 EEL =    -12200.2150  VDWAALS    =     11686.6483
 EELEC  =   -239916.7939  EHBOND  =         0.0000  RESTRAINT  =       115.0860
 EAMBER (non-restraint)  =   -208235.6150
 EKCMT  =     16195.9791  VIRIAL  =     21864.5555  VOLUME     =    809143.4774
                                                    SURFTEN    =       228.3722
                                                    Density    =         0.9736
 ------------------------------------------------------------------------------

      A V E R A G E S   O V E R      10 S T E P S

 NSTEP =    20000   TIME(PS) =     103.000  TEMP(K) =   309.98  PRESS =  -402.6
 Etot   =   -155551.1891  EKtot   =     52211.5086  EPtot      =   -207762.6977
 BOND   =      3794.5128  ANGLE   =     14028.2625  DIHED      =     10833.4187
 1-4 NB =      3672.3952  1-4 EEL =    -12212.5289  VDWAALS    =     11647.1945
 EELEC  =   -239649.8956  EHBOND  =         0.0000  RESTRAINT  =       123.9431
 EAMBER (non-restraint)  =   -207886.6408
 EKCMT  =     16079.2061  VIRIAL  =     23113.0571  VOLUME     =    809268.9726
                                                    SURFTEN    =        41.8423
                                                    Density    =         0.9734
 ------------------------------------------------------------------------------

      R M S  F L U C T U A T I O N S

 NSTEP =    20000   TIME(PS) =     103.000  TEMP(K) =     1.18  PRESS =    68.5
 Etot   =       170.7159  EKtot   =       199.0015  EPtot      =       222.7844
 BOND   =        37.4240  ANGLE   =        99.4805  DIHED      =        35.9026
 1-4 NB =        15.9297  1-4 EEL =        28.1789  VDWAALS    =       197.5788
 EELEC  =       239.9869  EHBOND  =         0.0000  RESTRAINT  =         5.0993
 EAMBER (non-restraint)  =       217.6851
 EKCMT  =        94.1470  VIRIAL  =      1220.9596  VOLUME     =       150.4330
                                                    SURFTEN    =        81.4300
                                                    Density    =         0.0002
 ------------------------------------------------------------------------------
