-------------------------------------------------------
          Amber 24 PMEMD                              2024
          -------------------------------------------------------

  [-O]verwriting output

File Assignments:

 Here is the input file:

*******************************************************
*****************************       eqnpt.in
*******************************************************
Equilibrate, NPT.
 &cntrl
  imin = 0,
  ntx = 1,
  ntxo = 1,
  irest = 0,
  ntpr = 1000,
  ntwr = 1000,
  ntwx = 1000,
  ioutfm = 1,
  iwrap = 1,
  ntf = 1,
  ntc = 2,
  cut = 9.0,
  ntt = 3,
  temp0 = 310.0,
  gamma_ln = 1.0,
  ig = -1,
  ntp = 0,
  mcbarint = 10,
  barostat = 1,
  nstlim = 10000,
  dt = 0.001,
  nmropt = 1,
  pencut = -1,
  ntr = 1,
  restraint_wt = 50.0,
  restraintmask = '(@CA,C,N,P31 | :g1i) & !@H=',
  infe = 0,
  infe = 0,
  clambda  = 0,
  icfe     = 1,
  timask1 = '',
  timask2 = ':g1i',
  scmask1 = '',
  scmask2 = ':g1i',
  ifsc    = 1,
  gti_cut         = 1,
  gti_output      = 1,
  gti_add_sc      = 5,
  gti_scale_beta  = 1,
  gti_cut_sc_on   = 7,
  gti_cut_sc_off  = 9,
  gti_ele_exp     = 2,
  gti_vdw_exp     = 2,
  dynlmb          = 0.05,
  ntave           = 500,
 /
 &pmd
 output_file = 'cmass.txt'
 output_freq = 1000
 cv_file = 'cv.in'
 /
 &wt type = 'END', /
DISANG=disang.rest
LISTOUT=POUT

Note: ig = -1. Setting random seed to   416072 based on wallclock time in
      microseconds.

--------------------------------------------------------------------------------
   1.  RESOURCE   USE:
--------------------------------------------------------------------------------

 getting new box info from bottom of inpcrd
 NATOM  =   79056 NTYPES =      31 NBONH =   67649 MBONA  =   11189
 NTHETH =   39394 MTHETA =   13431 NPHIH =   68217 MPHIA  =   45151
 NHPARM =       0 NPARM  =       0 NNB   =  223427 NRES   =   17943
 NBONA  =   11189 NTHETA =   13431 NPHIA =   45151 NUMBND =      97
 NUMANG =     210 NPTRA  =     269 NATYP =      63 NPHB   =       0
 IFBOX  =       1 NMXRS  =      50 IFCAP =       0 NEXTRA =       0
 NCOPY  =       0

     BOX TYPE: RECTILINEAR

--------------------------------------------------------------------------------
   2.  CONTROL  DATA  FOR  THE  RUN
--------------------------------------------------------------------------------

default_name

General flags:
     imin    =       0, nmropt  =       1

Nature and format of input:
     ntx     =       1, irest   =       0, ntrx    =       1

Nature and format of output:
     ntxo    =       1, ntpr    =    1000, ntrx    =       1, ntwr    =    1000
     iwrap   =       1, ntwx    =    1000, ntwv    =       0, ntwe    =       0
     ioutfm  =       1, ntwprt  =       0, idecomp =       0, rbornstat=      0

Potential function:
     ntf     =       1, ntb     =       1, igb     =       0, nsnb    =      25
     ipol    =       0, gbsa    =       0, iesp    =       0
     dielc   =   1.00000, cut     =   9.00000, intdiel =   1.00000

Frozen or restrained atoms:
     ibelly  =       0, ntr     =       1
     restraint_wt =  50.00000

Molecular dynamics:
     nstlim  =     10000, nscm    =         0, nrespa  =         1
     t       =   0.00000, dt      =   0.00100, vlimit  =  -1.00000

Langevin dynamics temperature regulation:
     ig      =  416072
     temp0   = 310.00000, tempi   =   0.00000, gamma_ln=   1.00000

SHAKE:
     ntc     =       2, jfastw  =       0
     tol     =   0.00001

NMR refinement options:
     iscale  =       0, noeskp  =       1, ipnlty  =       1, mxsub   =       1
     scalm   = 100.00000, pencut  =  -1.00000, tausw   =   0.10000

Free energy options:
     icfe    =       1, ifsc    =       1, klambda =       1
     clambda =  0.0000, scalpha =  0.5000, scbeta  = 12.0000
     sceeorder =       2
     dynlmb =  0.0500 logdvdl =       0

Ewald parameters:
     verbose =       0, ew_type =       0, nbflag  =       1, use_pme =       1
     vdwmeth =       1, eedmeth =       1, netfrc  =       1
     Box X =   94.010   Box Y =   84.985   Box Z =  111.368
     Alpha =   90.000   Beta  =   90.000   Gamma =   90.000
     NFFT1 =   96       NFFT2 =   96       NFFT3 =  112
     Cutoff=    9.000   Tol   =0.100E-04
     Ewald Coefficient =  0.30768
     Interpolation order =    4

    LOADING THE CONSTRAINED ATOMS AS GROUPS

   5.  REFERENCE ATOM COORDINATES

  default_name
     Mask (@CA,C,N,P31 | :g1i) & !@H=; matches  1040 atoms
     TI Mask 1  matches      0 atoms
     TI Mask 2 :g1i; matches     31 atoms
     TI region 1:   79025 atoms
     TI region 2:   79056 atoms
     SC Mask 2 :g1i; matches     31 atoms

--------------------------------------------------------------------------------
   3.  ATOMIC COORDINATES AND VELOCITIES
--------------------------------------------------------------------------------

default_name
 begin time read from input coords =     0.000 ps

           Begin reading energy term weight changes/NMR restraints
 WEIGHT CHANGES:
                         ** No weight changes given **

 RESTRAINTS:
 Requested file redirections:
  DISANG    = disang.rest
  LISTOUT   = POUT
 Restraints will be read from file: disang.rest
Here are comments from the DISANG input file:
# Anchor atoms  :92@CA  :61@CA  :257@CA  :286@O1  :286@C8  :286@O3  stage = equi

                       Number of restraints read =    21

                  Done reading weight changes/NMR restraints

 Number of triangulated 3-point waters found:    17035
 Number of shake restraints removed in TI region  1 :        0
 Number of shake restraints removed in TI region  2 :        0

     Sum of charges for TI region  1 =  -0.99999844
     Skip neutralizing charges...

     Sum of charges for TI region  2 =   0.00200256
     Skip neutralizing charges...

--------------------------------------------------------------------------------
   4.  RESULTS
 NSTEP =        0   TIME(PS) =       0.000  TEMP(K) =     0.00  PRESS =     0.0
 Etot   =   -272642.8454  EKtot   =         0.0000  EPtot      =   -272642.8454
 BOND   =     17262.7152  ANGLE   =      2212.5396  DIHED      =      9217.3479
 1-4 NB =      3076.8732  1-4 EEL =    -12388.5483  VDWAALS    =     29094.2089
 EELEC  =   -321408.6783  EHBOND  =         0.0000  RESTRAINT  =       290.6964
 EAMBER (non-restraint)  =   -272933.5419
 DV/DL  =      -105.7712
 ------------------------------------------------------------------------------

      A V E R A G E S   O V E R     500 S T E P S

 NSTEP =      500   TIME(PS) =       0.500  TEMP(K) =    76.06  PRESS =     0.0
 Etot   =   -233985.2996  EKtot   =     12804.7583  EPtot      =   -246790.0579
 BOND   =      1099.2361  ANGLE   =      4711.9450  DIHED      =      9603.5426
 1-4 NB =      3225.0055  1-4 EEL =    -12425.9037  VDWAALS    =     20700.1260
 EELEC  =   -274061.3187  EHBOND  =         0.0000  RESTRAINT  =       357.3092
 EAMBER (non-restraint)  =   -247147.3671
 DV/DL  =       -65.6065
 ------------------------------------------------------------------------------

      R M S  F L U C T U A T I O N S

 NSTEP =      500   TIME(PS) =       0.500  TEMP(K) =    37.40  PRESS =     0.0
 Etot   =     11216.1137  EKtot   =      6296.6717  EPtot      =      5104.6940
 BOND   =       816.3627  ANGLE   =      1346.8325  DIHED      =       213.9387
 1-4 NB =        72.4540  1-4 EEL =        29.8408  VDWAALS    =      2641.7147
 EELEC  =      5566.1352  EHBOND  =         0.0000  RESTRAINT  =        39.5267
 EAMBER (non-restraint)  =      5065.1673
 DV/DL  =        13.7679
 ------------------------------------------------------------------------------

      A V E R A G E S   O V E R     500 S T E P S

 NSTEP =      500   TIME(PS) =       0.500  TEMP(K) =    76.02  PRESS =     0.0
 Etot   =   -233985.2879  EKtot   =     12804.7700  EPtot      =   -246790.0579
 BOND   =      1099.2361  ANGLE   =      4711.9450  DIHED      =      9603.5426
 1-4 NB =      3225.0055  1-4 EEL =    -12425.9037  VDWAALS    =     20700.1260
 EELEC  =   -274061.3187  EHBOND  =         0.0000  RESTRAINT  =       357.3092
 EAMBER (non-restraint)  =   -247147.3671
 DV/DL  =       -65.6065
 ------------------------------------------------------------------------------

      R M S  F L U C T U A T I O N S

 NSTEP =      500   TIME(PS) =       0.500  TEMP(K) =    37.38  PRESS =     0.0
 Etot   =     11216.1137  EKtot   =      6296.6717  EPtot      =      5104.6940
 BOND   =       816.3627  ANGLE   =      1346.8325  DIHED      =       213.9387
 1-4 NB =        72.4540  1-4 EEL =        29.8408  VDWAALS    =      2641.7147
 EELEC  =      5566.1352  EHBOND  =         0.0000  RESTRAINT  =        39.5267
 EAMBER (non-restraint)  =      5065.1673
 DV/DL  =        13.7679
 ------------------------------------------------------------------------------

      DV/DL, AVERAGES OVER     500 STEPS

 NSTEP =      500   TIME(PS) =       0.500  TEMP(K) =    37.38  PRESS =     0.0
 Etot   =         0.0000  EKtot   =         0.0000  EPtot      =       -65.6065
 BOND   =         0.0000  ANGLE   =         0.0000  DIHED      =        14.9929
 1-4 NB =        -1.6160  1-4 EEL =        92.9282  VDWAALS    =       -26.4515
 EELEC  =      -145.4601  EHBOND  =         0.0000  RESTRAINT  =         0.0000
 DV/DL  =       -65.6065
 ------------------------------------------------------------------------------

      A V E R A G E S   O V E R     500 S T E P S

 NSTEP =     1000   TIME(PS) =       1.000  TEMP(K) =   171.56  PRESS =     0.0
 Etot   =   -203612.5922  EKtot   =     28883.4600  EPtot      =   -232496.0522
 BOND   =      2114.1466  ANGLE   =      8351.3822  DIHED      =     10199.9219
 1-4 NB =      3420.5181  1-4 EEL =    -12425.9184  VDWAALS    =     18228.5736
 EELEC  =   -262854.1261  EHBOND  =         0.0000  RESTRAINT  =       469.4499
 EAMBER (non-restraint)  =   -232965.5022
 DV/DL  =       -53.7554
 ------------------------------------------------------------------------------

      R M S  F L U C T U A T I O N S

 NSTEP =     1000   TIME(PS) =       1.000  TEMP(K) =    20.27  PRESS =     0.0
 Etot   =      6662.0523  EKtot   =      3411.8085  EPtot      =      3251.5478
 BOND   =       238.1155  ANGLE   =       785.3911  DIHED      =       137.2842
 1-4 NB =        40.6051  1-4 EEL =        29.5362  VDWAALS    =       548.7757
 EELEC  =      2575.9690  EHBOND  =         0.0000  RESTRAINT  =        19.8134
 EAMBER (non-restraint)  =      3231.7344
 DV/DL  =         5.2415
 ------------------------------------------------------------------------------

      A V E R A G E S   O V E R     500 S T E P S

 NSTEP =     1000   TIME(PS) =       1.000  TEMP(K) =   171.48  PRESS =     0.0
 Etot   =   -203612.5512  EKtot   =     28883.5010  EPtot      =   -232496.0522
 BOND   =      2114.1466  ANGLE   =      8351.3822  DIHED      =     10199.9219
 1-4 NB =      3420.5181  1-4 EEL =    -12425.9184  VDWAALS    =     18228.5736
 EELEC  =   -262854.1261  EHBOND  =         0.0000  RESTRAINT  =       469.4499
 EAMBER (non-restraint)  =   -232965.5022
 DV/DL  =       -53.7554
 ------------------------------------------------------------------------------

      R M S  F L U C T U A T I O N S

 NSTEP =     1000   TIME(PS) =       1.000  TEMP(K) =    20.26  PRESS =     0.0
 Etot   =      6662.0986  EKtot   =      3411.8535  EPtot      =      3251.5478
 BOND   =       238.1155  ANGLE   =       785.3911  DIHED      =       137.2842
 1-4 NB =        40.6051  1-4 EEL =        29.5362  VDWAALS    =       548.7757
 EELEC  =      2575.9690  EHBOND  =         0.0000  RESTRAINT  =        19.8134
 EAMBER (non-restraint)  =      3231.7344
 DV/DL  =         5.2415
 ------------------------------------------------------------------------------

      DV/DL, AVERAGES OVER     500 STEPS

 NSTEP =     1000   TIME(PS) =       1.000  TEMP(K) =    20.26  PRESS =     0.0
 Etot   =         0.0000  EKtot   =         0.0000  EPtot      =       -53.7554
 BOND   =         0.0000  ANGLE   =         0.0000  DIHED      =        18.0909
 1-4 NB =        -1.4937  1-4 EEL =        93.8739  VDWAALS    =       -27.3778
 EELEC  =      -137.4996  EHBOND  =         0.0000  RESTRAINT  =         0.0000
 DV/DL  =       -53.7554
 ------------------------------------------------------------------------------

      A V E R A G E S   O V E R     500 S T E P S

 NSTEP =    10000   TIME(PS) =      10.000  TEMP(K) =   309.52  PRESS =     0.0
 Etot   =   -149946.5553  EKtot   =     52110.1517  EPtot      =   -202056.7071
 BOND   =      3709.6753  ANGLE   =     13854.9108  DIHED      =     10995.7338
 1-4 NB =      3696.6065  1-4 EEL =    -12208.5098  VDWAALS    =     11264.2436
 EELEC  =   -233987.7793  EHBOND  =         0.0000  RESTRAINT  =       618.4120
 EAMBER (non-restraint)  =   -202675.1191
 DV/DL  =       -46.8920
 ------------------------------------------------------------------------------

      R M S  F L U C T U A T I O N S

 NSTEP =    10000   TIME(PS) =      10.000  TEMP(K) =     0.82  PRESS =     0.0
 Etot   =       114.5994  EKtot   =       137.6496  EPtot      =       176.6091
 BOND   =        45.6001  ANGLE   =        79.5027  DIHED      =        32.1703
 1-4 NB =        16.5080  1-4 EEL =        49.3243  VDWAALS    =       193.5099
 EELEC  =       272.6909  EHBOND  =         0.0000  RESTRAINT  =        12.3997
 EAMBER (non-restraint)  =       164.2094
 DV/DL  =        25.3337
 ------------------------------------------------------------------------------

      A V E R A G E S   O V E R     500 S T E P S

 NSTEP =    10000   TIME(PS) =      10.000  TEMP(K) =   309.54  PRESS =     0.0
 Etot   =   -149920.3823  EKtot   =     52136.3248  EPtot      =   -202056.7071
 BOND   =      3709.6753  ANGLE   =     13854.9108  DIHED      =     10995.7338
 1-4 NB =      3696.6065  1-4 EEL =    -12208.5098  VDWAALS    =     11264.2436
 EELEC  =   -233987.7793  EHBOND  =         0.0000  RESTRAINT  =       618.4120
 EAMBER (non-restraint)  =   -202675.1191
 DV/DL  =       -46.8920
 ------------------------------------------------------------------------------

      R M S  F L U C T U A T I O N S

 NSTEP =    10000   TIME(PS) =      10.000  TEMP(K) =     0.82  PRESS =     0.0
 Etot   =       114.5992  EKtot   =       137.6481  EPtot      =       176.6091
 BOND   =        45.6001  ANGLE   =        79.5027  DIHED      =        32.1703
 1-4 NB =        16.5080  1-4 EEL =        49.3243  VDWAALS    =       193.5099
 EELEC  =       272.6909  EHBOND  =         0.0000  RESTRAINT  =        12.3997
 EAMBER (non-restraint)  =       164.2094
 DV/DL  =        25.3337
 ------------------------------------------------------------------------------

      DV/DL, AVERAGES OVER     500 STEPS

 NSTEP =    10000   TIME(PS) =      10.000  TEMP(K) =     0.82  PRESS =     0.0
 Etot   =         0.0000  EKtot   =         0.0000  EPtot      =       -46.8920
 BOND   =         0.0000  ANGLE   =         0.0000  DIHED      =         7.7807
 1-4 NB =         6.2084  1-4 EEL =       138.7483  VDWAALS    =       -27.3820
 EELEC  =      -194.0845  EHBOND  =         0.0000  RESTRAINT  =         0.0000
 DV/DL  =       -46.8920
 ------------------------------------------------------------------------------

      A V E R A G E S   O V E R   10000 S T E P S

 NSTEP =    10000   TIME(PS) =      10.000  TEMP(K) =     0.00  PRESS =     0.0
 Etot   =         0.0000  EKtot   =         0.0000  EPtot      =   -209407.8590
 BOND   =      3398.9377  ANGLE   =     12752.6845  DIHED      =     10871.1337
 1-4 NB =      3642.4024  1-4 EEL =    -12320.7296  VDWAALS    =     13003.7470
 EELEC  =   -241338.4836  EHBOND  =         0.0000  RESTRAINT  =       582.4489
 EAMBER (non-restraint)  =   -209990.3079
 DV/DL  =       -39.4929
 ------------------------------------------------------------------------------

      R M S  F L U C T U A T I O N S

 NSTEP =    10000   TIME(PS) =      10.000  TEMP(K) =     0.00  PRESS =     0.0
 Etot   =         0.0000  EKtot   =         0.0000  EPtot      =     11815.0083
 BOND   =       692.3852  ANGLE   =      2347.4671  DIHED      =       363.3329
 1-4 NB =       121.6162  1-4 EEL =        84.5458  VDWAALS    =      2698.1615
 EELEC  =     10935.6227  EHBOND  =         0.0000  RESTRAINT  =        65.1863
 EAMBER (non-restraint)  =     11749.8220
 DV/DL  =        17.5096
 ------------------------------------------------------------------------------

      A V E R A G E S   O V E R   10000 S T E P S

 NSTEP =    10000   TIME(PS) =      10.000  TEMP(K) =     0.00  PRESS =     0.0
 Etot   =         0.0000  EKtot   =         0.0000  EPtot      =   -209407.8590
 BOND   =      3398.9377  ANGLE   =     12752.6845  DIHED      =     10871.1337
 1-4 NB =      3642.4024  1-4 EEL =    -12320.7296  VDWAALS    =     13003.7470
 EELEC  =   -241338.4836  EHBOND  =         0.0000  RESTRAINT  =       582.4489
 EAMBER (non-restraint)  =   -209990.3079
 DV/DL  =       -39.4929
 ------------------------------------------------------------------------------

      R M S  F L U C T U A T I O N S

 NSTEP =    10000   TIME(PS) =      10.000  TEMP(K) =     0.00  PRESS =     0.0
 Etot   =         0.0000  EKtot   =         0.0000  EPtot      =     11815.0083
 BOND   =       692.3852  ANGLE   =      2347.4671  DIHED      =       363.3329
 1-4 NB =       121.6162  1-4 EEL =        84.5458  VDWAALS    =      2698.1615
 EELEC  =     10935.6227  EHBOND  =         0.0000  RESTRAINT  =        65.1863
 EAMBER (non-restraint)  =     11749.8220
 DV/DL  =        17.5096
 ------------------------------------------------------------------------------

      DV/DL, AVERAGES OVER   10000 STEPS

 NSTEP =    10000   TIME(PS) =      10.000  TEMP(K) =     0.00  PRESS =     0.0
 Etot   =         0.0000  EKtot   =         0.0000  EPtot      =         0.0000
 BOND   =         0.0000  ANGLE   =         0.0000  DIHED      =         0.0000
 1-4 NB =         0.0000  1-4 EEL =         0.0000  VDWAALS    =         0.0000
 EELEC  =         0.0000  EHBOND  =         0.0000  RESTRAINT  =         0.0000
 DV/DL  =         0.0000
 ------------------------------------------------------------------------------
