-------------------------------------------------------
          Amber 24 PMEMD                              2024
          -------------------------------------------------------

  [-O]verwriting output

File Assignments:

 Here is the input file:

*******************************************************
*****************************       mdin
*******************************************************
Runs equilibrium stage
 &cntrl
  imin = 0,
  ntx = 5,
  irest = 1,
  ntpr = 1000,
  ntwr = 10000,
  ntwe = 0,
  ntxo = 2,
  ntwx = 10000,
  ioutfm = 1,
  iwrap = 1,
  ntf = 2,
  ntc = 2,
  cut = 10,
  ntt = 3,
  temp0 = 310.0,
  gamma_ln = 1.0,
  ig = -1,
  ntp = 3,
  csurften = 3,
  barostat = 1,
  nstlim = 1000000,
  dt = 0.004,
  nmropt = 1,
  pencut = -1,
  ntr = 1,
 restraint_wt = 10,
  restraintmask = "(:28,31-51,104-131,195-218,263-284) & @CA",
  infe = 0,
  mcwat = 1,
  nmd = 1000,
  nmc = 1000,
  mcwatmask = ":g1i",
  mcligshift = 40,
  mcresstr = "WAT",
 /
 &pmd
 output_file = 'cmass.txt'
 output_freq = 10000
 cv_file = 'cv.in'
 /
 &wt type = 'END', /
DISANG=disang06.rest
LISTOUT=POUT

Note: ig = -1. Setting random seed to   136319 based on wallclock time in
      microseconds.

--------------------------------------------------------------------------------
   1.  RESOURCE   USE:
--------------------------------------------------------------------------------

 getting box info from netcdf restart file
 NATOM  =   79056 NTYPES =      31 NBONH =   67649 MBONA  =   11189
 NTHETH =   39394 MTHETA =   13431 NPHIH =   68217 MPHIA  =   45151
 NHPARM =       0 NPARM  =       0 NNB   =  223427 NRES   =   17943
 NBONA  =   11189 NTHETA =   13431 NPHIA =   45151 NUMBND =      97
 NUMANG =     210 NPTRA  =     269 NATYP =      63 NPHB   =       0
 IFBOX  =       1 NMXRS  =      50 IFCAP =       0 NEXTRA =       0
 NCOPY  =       0

     BOX TYPE: RECTILINEAR

--------------------------------------------------------------------------------
   2.  CONTROL  DATA  FOR  THE  RUN
--------------------------------------------------------------------------------

default_name

General flags:
     imin    =       0, nmropt  =       1

Nature and format of input:
     ntx     =       5, irest   =       1, ntrx    =       1

Nature and format of output:
     ntxo    =       2, ntpr    =    1000, ntrx    =       1, ntwr    =   10000
     iwrap   =       1, ntwx    =   10000, ntwv    =       0, ntwe    =       0
     ioutfm  =       1, ntwprt  =       0, idecomp =       0, rbornstat=      0

Potential function:
     ntf     =       2, ntb     =       2, igb     =       0, nsnb    =      25
     ipol    =       0, gbsa    =       0, iesp    =       0
     dielc   =   1.00000, cut     =  10.00000, intdiel =   1.00000

Frozen or restrained atoms:
     ibelly  =       0, ntr     =       1
     restraint_wt =  10.00000

Molecular dynamics:
     nstlim  =   1000000, nscm    =         0, nrespa  =         1
     t       =   0.00000, dt      =   0.00400, vlimit  =  -1.00000

Langevin dynamics temperature regulation:
     ig      =  136319
     temp0   = 310.00000, tempi   =   0.00000, gamma_ln=   1.00000

Pressure regulation:
     ntp     =       3
     pres0   =   1.00000, comp    =  44.60000, taup    =   1.00000

Constant surface tension:
     csurften  =       3
     gamma_ten =   0.00000 ninterface =       2

SHAKE:
     ntc     =       2, jfastw  =       0
     tol     =   0.00001

NMR refinement options:
     iscale  =       0, noeskp  =       1, ipnlty  =       1, mxsub   =       1
     scalm   = 100.00000, pencut  =  -1.00000, tausw   =   0.10000

Ewald parameters:
     verbose =       0, ew_type =       0, nbflag  =       1, use_pme =       1
     vdwmeth =       1, eedmeth =       1, netfrc  =       1
     Box X =   89.689   Box Y =   81.079   Box Z =  107.017
     Alpha =   90.000   Beta  =   90.000   Gamma =   90.000
     NFFT1 =   96       NFFT2 =   84       NFFT3 =  108
     Cutoff=   10.000   Tol   =0.100E-04
     Ewald Coefficient =  0.27511
     Interpolation order =    4

    LOADING THE CONSTRAINED ATOMS AS GROUPS

   5.  REFERENCE ATOM COORDINATES

  default_name
     Mask (:28,31-51,104-131,195-218,263-284) & @CA; matches    96 atoms

--------------------------------------------------------------------------------
   3.  ATOMIC COORDINATES AND VELOCITIES
--------------------------------------------------------------------------------

default_name
 begin time read from input coords = 18103.000 ps

           Begin reading energy term weight changes/NMR restraints
 WEIGHT CHANGES:
                         ** No weight changes given **

 RESTRAINTS:
 Requested file redirections:
  DISANG    = disang06.rest
  LISTOUT   = POUT
 Restraints will be read from file: disang06.rest
Here are comments from the DISANG input file:
# Anchor atoms  :92@CA  :61@CA  :257@CA  :286@O1  :286@C8  :286@O3  stage = equi

                       Number of restraints read =    21

                  Done reading weight changes/NMR restraints

 Number of triangulated 3-point waters found:    17035

     Sum of charges from parm topology file =   0.00200256
     Forcing neutrality...

--------------------------------------------------------------------------------
   4.  RESULTS
 NSTEP =     1000   TIME(PS) =   18107.000  TEMP(K) =   308.72  PRESS =    32.7
 Etot   =   -154572.4143  EKtot   =     51999.3359  EPtot      =   -206571.7502
 BOND   =      4685.3610  ANGLE   =     15423.7444  DIHED      =     10739.8170
 1-4 NB =      3707.9568  1-4 EEL =    -12485.4764  VDWAALS    =     10980.1698
 EELEC  =   -239671.7408  EHBOND  =         0.0000  RESTRAINT  =        48.4179
 EAMBER (non-restraint)  =   -206620.1681
 EKCMT  =     16129.2493  VIRIAL  =     15579.5502  VOLUME     =    778225.6703
                                                    SURFTEN    =        -0.3897
                                                    Density    =         1.0123
 ------------------------------------------------------------------------------

      A V E R A G E S   O V E R    1000 S T E P S

 NSTEP =  1000000   TIME(PS) =   22103.000  TEMP(K) =   310.47  PRESS =    -0.4
 Etot   =   -154028.6244  EKtot   =     52293.5950  EPtot      =   -206322.2194
 BOND   =      4737.8863  ANGLE   =     15450.0398  DIHED      =     10800.9981
 1-4 NB =      3707.7786  1-4 EEL =    -12346.5683  VDWAALS    =     10769.8733
 EELEC  =   -239492.6395  EHBOND  =         0.0000  RESTRAINT  =        50.4123
 EAMBER (non-restraint)  =   -206372.6317
 EKCMT  =     16253.9623  VIRIAL  =     16260.6091  VOLUME     =    777253.7207
                                                    SURFTEN    =         5.3774
                                                    Density    =         1.0135
 ------------------------------------------------------------------------------

      R M S  F L U C T U A T I O N S

 NSTEP =  1000000   TIME(PS) =   22103.000  TEMP(K) =     1.01  PRESS =    92.5
 Etot   =       301.5662  EKtot   =       170.8672  EPtot      =       238.8698
 BOND   =        62.5167  ANGLE   =        95.9853  DIHED      =        47.3152
 1-4 NB =        27.2450  1-4 EEL =        65.4634  VDWAALS    =       204.4029
 EELEC  =       321.0801  EHBOND  =         0.0000  RESTRAINT  =         4.9002
 EAMBER (non-restraint)  =       233.9696
 EKCMT  =        98.1008  VIRIAL  =      1555.1196  VOLUME     =       907.0246
                                                    SURFTEN    =       108.4779
                                                    Density    =         0.0012
 ------------------------------------------------------------------------------
