-------------------------------------------------------
          Amber 24 PMEMD                              2024
          -------------------------------------------------------

  [-O]verwriting output

File Assignments:

 Here is the input file:

*******************************************************
*****************************       mdin
*******************************************************
Runs equilibrium stage
 &cntrl
  imin = 0,
  ntx = 5,
  irest = 1,
  ntpr = 1000,
  ntwr = 10000,
  ntwe = 0,
  ntxo = 2,
  ntwx = 10000,
  ioutfm = 1,
  iwrap = 1,
  ntf = 2,
  ntc = 2,
  cut = 10,
  ntt = 3,
  temp0 = 310.0,
  gamma_ln = 1.0,
  ig = -1,
  ntp = 3,
  csurften = 3,
  barostat = 1,
  nstlim = 1000000,
  dt = 0.004,
  nmropt = 1,
  pencut = -1,
  ntr = 1,
 restraint_wt = 10,
  restraintmask = "(:28,31-51,104-131,195-218,263-284) & @CA",
  infe = 0,
  mcwat = 1,
  nmd = 1000,
  nmc = 1000,
  mcwatmask = ":g1i",
  mcligshift = 40,
  mcresstr = "WAT",
 /
 &pmd
 output_file = 'cmass.txt'
 output_freq = 10000
 cv_file = 'cv.in'
 /
 &wt type = 'END', /
DISANG=disang03.rest
LISTOUT=POUT

Note: ig = -1. Setting random seed to   103480 based on wallclock time in
      microseconds.

--------------------------------------------------------------------------------
   1.  RESOURCE   USE:
--------------------------------------------------------------------------------

 getting box info from netcdf restart file
 NATOM  =   79056 NTYPES =      31 NBONH =   67649 MBONA  =   11189
 NTHETH =   39394 MTHETA =   13431 NPHIH =   68217 MPHIA  =   45151
 NHPARM =       0 NPARM  =       0 NNB   =  223427 NRES   =   17943
 NBONA  =   11189 NTHETA =   13431 NPHIA =   45151 NUMBND =      97
 NUMANG =     210 NPTRA  =     269 NATYP =      63 NPHB   =       0
 IFBOX  =       1 NMXRS  =      50 IFCAP =       0 NEXTRA =       0
 NCOPY  =       0

     BOX TYPE: RECTILINEAR

--------------------------------------------------------------------------------
   2.  CONTROL  DATA  FOR  THE  RUN
--------------------------------------------------------------------------------

default_name

General flags:
     imin    =       0, nmropt  =       1

Nature and format of input:
     ntx     =       5, irest   =       1, ntrx    =       1

Nature and format of output:
     ntxo    =       2, ntpr    =    1000, ntrx    =       1, ntwr    =   10000
     iwrap   =       1, ntwx    =   10000, ntwv    =       0, ntwe    =       0
     ioutfm  =       1, ntwprt  =       0, idecomp =       0, rbornstat=      0

Potential function:
     ntf     =       2, ntb     =       2, igb     =       0, nsnb    =      25
     ipol    =       0, gbsa    =       0, iesp    =       0
     dielc   =   1.00000, cut     =  10.00000, intdiel =   1.00000

Frozen or restrained atoms:
     ibelly  =       0, ntr     =       1
     restraint_wt =  10.00000

Molecular dynamics:
     nstlim  =   1000000, nscm    =         0, nrespa  =         1
     t       =   0.00000, dt      =   0.00400, vlimit  =  -1.00000

Langevin dynamics temperature regulation:
     ig      =  103480
     temp0   = 310.00000, tempi   =   0.00000, gamma_ln=   1.00000

Pressure regulation:
     ntp     =       3
     pres0   =   1.00000, comp    =  44.60000, taup    =   1.00000

Constant surface tension:
     csurften  =       3
     gamma_ten =   0.00000 ninterface =       2

SHAKE:
     ntc     =       2, jfastw  =       0
     tol     =   0.00001

NMR refinement options:
     iscale  =       0, noeskp  =       1, ipnlty  =       1, mxsub   =       1
     scalm   = 100.00000, pencut  =  -1.00000, tausw   =   0.10000

Ewald parameters:
     verbose =       0, ew_type =       0, nbflag  =       1, use_pme =       1
     vdwmeth =       1, eedmeth =       1, netfrc  =       1
     Box X =   89.863   Box Y =   81.236   Box Z =  106.492
     Alpha =   90.000   Beta  =   90.000   Gamma =   90.000
     NFFT1 =   96       NFFT2 =   84       NFFT3 =  108
     Cutoff=   10.000   Tol   =0.100E-04
     Ewald Coefficient =  0.27511
     Interpolation order =    4

    LOADING THE CONSTRAINED ATOMS AS GROUPS

   5.  REFERENCE ATOM COORDINATES

  default_name
     Mask (:28,31-51,104-131,195-218,263-284) & @CA; matches    96 atoms

--------------------------------------------------------------------------------
   3.  ATOMIC COORDINATES AND VELOCITIES
--------------------------------------------------------------------------------

default_name
 begin time read from input coords =  6103.000 ps

           Begin reading energy term weight changes/NMR restraints
 WEIGHT CHANGES:
                         ** No weight changes given **

 RESTRAINTS:
 Requested file redirections:
  DISANG    = disang03.rest
  LISTOUT   = POUT
 Restraints will be read from file: disang03.rest
Here are comments from the DISANG input file:
# Anchor atoms  :92@CA  :61@CA  :257@CA  :286@O1  :286@C8  :286@O3  stage = equi

                       Number of restraints read =    21

                  Done reading weight changes/NMR restraints

 Number of triangulated 3-point waters found:    17035

     Sum of charges from parm topology file =   0.00200256
     Forcing neutrality...

--------------------------------------------------------------------------------
   4.  RESULTS
 NSTEP =     1000   TIME(PS) =    6107.000  TEMP(K) =   308.91  PRESS =     1.7
 Etot   =   -153891.0620  EKtot   =     52030.9648  EPtot      =   -205922.0269
 BOND   =      4792.4241  ANGLE   =     15681.6200  DIHED      =     10916.7713
 1-4 NB =      3703.9892  1-4 EEL =    -12384.1978  VDWAALS    =     10833.7332
 EELEC  =   -239510.6045  EHBOND  =         0.0000  RESTRAINT  =        44.2376
 EAMBER (non-restraint)  =   -205966.2644
 EKCMT  =     16329.0277  VIRIAL  =     16299.9388  VOLUME     =    776758.8310
                                                    SURFTEN    =         2.6499
                                                    Density    =         1.0142
 ------------------------------------------------------------------------------

      A V E R A G E S   O V E R    1000 S T E P S

 NSTEP =  1000000   TIME(PS) =   10103.000  TEMP(K) =   310.46  PRESS =     0.6
 Etot   =   -154008.4247  EKtot   =     52291.6352  EPtot      =   -206300.0600
 BOND   =      4741.5718  ANGLE   =     15453.2000  DIHED      =     10824.2630
 1-4 NB =      3704.7118  1-4 EEL =    -12338.0263  VDWAALS    =     10787.4807
 EELEC  =   -239521.8697  EHBOND  =         0.0000  RESTRAINT  =        48.6088
 EAMBER (non-restraint)  =   -206348.6688
 EKCMT  =     16252.1084  VIRIAL  =     16241.9473  VOLUME     =    777110.1020
                                                    SURFTEN    =         9.4310
                                                    Density    =         1.0137
 ------------------------------------------------------------------------------

      R M S  F L U C T U A T I O N S

 NSTEP =  1000000   TIME(PS) =   10103.000  TEMP(K) =     1.06  PRESS =    90.6
 Etot   =       303.3890  EKtot   =       179.2051  EPtot      =       243.0655
 BOND   =        63.0087  ANGLE   =       103.8730  DIHED      =        45.5084
 1-4 NB =        25.2720  1-4 EEL =        65.7616  VDWAALS    =       204.3501
 EELEC  =       317.0271  EHBOND  =         0.0000  RESTRAINT  =         4.5891
 EAMBER (non-restraint)  =       238.4764
 EKCMT  =        99.5110  VIRIAL  =      1519.7531  VOLUME     =       863.0357
                                                    SURFTEN    =       105.0167
                                                    Density    =         0.0011
 ------------------------------------------------------------------------------
