-------------------------------------------------------
          Amber 24 PMEMD                              2024
          -------------------------------------------------------

  [-O]verwriting output

File Assignments:

 Here is the input file:

*******************************************************
*****************************       mdin
*******************************************************
Runs equilibrium stage
 &cntrl
  imin = 0,
  ntx = 5,
  irest = 1,
  ntpr = 1000,
  ntwr = 10000,
  ntwe = 0,
  ntxo = 2,
  ntwx = 10000,
  ioutfm = 1,
  iwrap = 1,
  ntf = 2,
  ntc = 2,
  cut = 10,
  ntt = 3,
  temp0 = 310.0,
  gamma_ln = 1.0,
  ig = -1,
  ntp = 3,
  csurften = 3,
  barostat = 1,
  nstlim = 500000,
  dt = 0.004,
  nmropt = 1,
  pencut = -1,
  ntr = 1,
 restraint_wt = 10,
  restraintmask = "(:28,31-51,104-131,195-218,263-284) & @CA",
  infe = 0,
  mcwat = 1,
  nmd = 1000,
  nmc = 1000,
  mcwatmask = ":g1i",
  mcligshift = 40,
  mcresstr = "WAT",
 /
 &pmd
 output_file = 'cmass.txt'
 output_freq = 10000
 cv_file = 'cv.in'
 /
 &wt type = 'END', /
DISANG=disang01.rest
LISTOUT=POUT

Note: ig = -1. Setting random seed to   450351 based on wallclock time in
      microseconds.

--------------------------------------------------------------------------------
   1.  RESOURCE   USE:
--------------------------------------------------------------------------------

 getting box info from netcdf restart file
 NATOM  =   79056 NTYPES =      31 NBONH =   67649 MBONA  =   11189
 NTHETH =   39394 MTHETA =   13431 NPHIH =   68217 MPHIA  =   45151
 NHPARM =       0 NPARM  =       0 NNB   =  223427 NRES   =   17943
 NBONA  =   11189 NTHETA =   13431 NPHIA =   45151 NUMBND =      97
 NUMANG =     210 NPTRA  =     269 NATYP =      63 NPHB   =       0
 IFBOX  =       1 NMXRS  =      50 IFCAP =       0 NEXTRA =       0
 NCOPY  =       0

     BOX TYPE: RECTILINEAR

--------------------------------------------------------------------------------
   2.  CONTROL  DATA  FOR  THE  RUN
--------------------------------------------------------------------------------

default_name

General flags:
     imin    =       0, nmropt  =       1

Nature and format of input:
     ntx     =       5, irest   =       1, ntrx    =       1

Nature and format of output:
     ntxo    =       2, ntpr    =    1000, ntrx    =       1, ntwr    =   10000
     iwrap   =       1, ntwx    =   10000, ntwv    =       0, ntwe    =       0
     ioutfm  =       1, ntwprt  =       0, idecomp =       0, rbornstat=      0

Potential function:
     ntf     =       2, ntb     =       2, igb     =       0, nsnb    =      25
     ipol    =       0, gbsa    =       0, iesp    =       0
     dielc   =   1.00000, cut     =  10.00000, intdiel =   1.00000

Frozen or restrained atoms:
     ibelly  =       0, ntr     =       1
     restraint_wt =  10.00000

Molecular dynamics:
     nstlim  =    500000, nscm    =         0, nrespa  =         1
     t       =   0.00000, dt      =   0.00400, vlimit  =  -1.00000

Langevin dynamics temperature regulation:
     ig      =  450351
     temp0   = 310.00000, tempi   =   0.00000, gamma_ln=   1.00000

Pressure regulation:
     ntp     =       3
     pres0   =   1.00000, comp    =  44.60000, taup    =   1.00000

Constant surface tension:
     csurften  =       3
     gamma_ten =   0.00000 ninterface =       2

SHAKE:
     ntc     =       2, jfastw  =       0
     tol     =   0.00001

NMR refinement options:
     iscale  =       0, noeskp  =       1, ipnlty  =       1, mxsub   =       1
     scalm   = 100.00000, pencut  =  -1.00000, tausw   =   0.10000

Ewald parameters:
     verbose =       0, ew_type =       0, nbflag  =       1, use_pme =       1
     vdwmeth =       1, eedmeth =       1, netfrc  =       1
     Box X =   90.171   Box Y =   81.515   Box Z =  106.328
     Alpha =   90.000   Beta  =   90.000   Gamma =   90.000
     NFFT1 =   96       NFFT2 =   84       NFFT3 =  108
     Cutoff=   10.000   Tol   =0.100E-04
     Ewald Coefficient =  0.27511
     Interpolation order =    4

    LOADING THE CONSTRAINED ATOMS AS GROUPS

   5.  REFERENCE ATOM COORDINATES

  default_name
     Mask (:28,31-51,104-131,195-218,263-284) & @CA; matches    96 atoms

--------------------------------------------------------------------------------
   3.  ATOMIC COORDINATES AND VELOCITIES
--------------------------------------------------------------------------------

default_name
 begin time read from input coords =  2103.000 ps

           Begin reading energy term weight changes/NMR restraints
 WEIGHT CHANGES:
                         ** No weight changes given **

 RESTRAINTS:
 Requested file redirections:
  DISANG    = disang01.rest
  LISTOUT   = POUT
 Restraints will be read from file: disang01.rest
Here are comments from the DISANG input file:
# Anchor atoms  :92@CA  :61@CA  :257@CA  :286@O1  :286@C8  :286@O3  stage = equi

                       Number of restraints read =    21

                  Done reading weight changes/NMR restraints

 Number of triangulated 3-point waters found:    17035

     Sum of charges from parm topology file =   0.00200256
     Forcing neutrality...

--------------------------------------------------------------------------------
   4.  RESULTS
 NSTEP =     1000   TIME(PS) =    2107.000  TEMP(K) =   309.58  PRESS =   135.2
 Etot   =   -153361.4465  EKtot   =     52143.6875  EPtot      =   -205505.1340
 BOND   =      4927.4869  ANGLE   =     15509.3557  DIHED      =     10759.7132
 1-4 NB =      3685.0734  1-4 EEL =    -12440.6471  VDWAALS    =     11288.7094
 EELEC  =   -239275.9268  EHBOND  =         0.0000  RESTRAINT  =        41.1014
 EAMBER (non-restraint)  =   -205546.2354
 EKCMT  =     16269.5401  VIRIAL  =     13989.4184  VOLUME     =    780958.7048
                                                    SURFTEN    =       -29.4720
                                                    Density    =         1.0087
 ------------------------------------------------------------------------------

      A V E R A G E S   O V E R     500 S T E P S

 NSTEP =   500000   TIME(PS) =    4103.000  TEMP(K) =   310.62  PRESS =    -3.7
 Etot   =   -153858.5116  EKtot   =     52318.5097  EPtot      =   -206177.0213
 BOND   =      4739.4192  ANGLE   =     15474.1353  DIHED      =     10822.2348
 1-4 NB =      3703.3596  1-4 EEL =    -12356.5740  VDWAALS    =     10829.5280
 EELEC  =   -239437.8649  EHBOND  =         0.0000  RESTRAINT  =        48.7407
 EAMBER (non-restraint)  =   -206225.7620
 EKCMT  =     16257.9647  VIRIAL  =     16320.7409  VOLUME     =    777906.4256
                                                    SURFTEN    =        16.2887
                                                    Density    =         1.0127
 ------------------------------------------------------------------------------

      R M S  F L U C T U A T I O N S

 NSTEP =   500000   TIME(PS) =    4103.000  TEMP(K) =     1.03  PRESS =    84.2
 Etot   =       312.6165  EKtot   =       173.4023  EPtot      =       253.5925
 BOND   =        62.3619  ANGLE   =        99.5377  DIHED      =        46.1594
 1-4 NB =        25.2715  1-4 EEL =        63.2775  VDWAALS    =       203.1531
 EELEC  =       335.7487  EHBOND  =         0.0000  RESTRAINT  =         4.8085
 EAMBER (non-restraint)  =       248.7839
 EKCMT  =        98.7615  VIRIAL  =      1412.8317  VOLUME     =       833.2011
                                                    SURFTEN    =       106.5859
                                                    Density    =         0.0011
 ------------------------------------------------------------------------------
